Circuit: * C:\Users\b59mi\Documents\Business\4th Year Engineering\Semester 1\ECE490\Analog-Drum-Machine\Kick Drum\Drum.asc

R19: both pins shorted together -- ignoring.
Direct Newton iteration failed to find .op point.  (Use ".option noopiter" to skip.)
Starting Gmin stepping
Gmin = 10
Gmin = 1.07374
Gmin = 0.115292
Gmin = 0.0123794
Gmin = 0.00132923
Gmin = 0.000142725
Gmin = 1.5325e-005
Gmin = 1.6455e-006
Gmin = 1.76685e-007
Gmin = 1.89714e-008
Gmin = 2.03704e-009
Gmin = 2.18725e-010
Gmin = 2.34854e-011
Gmin = 2.52173e-012
Gmin = 2.70769e-013
Gmin = 0
Gmin stepping succeeded in finding the operating point.


Date: Tue Nov 13 12:06:39 2018
Total elapsed time: 33.073 seconds.

tnom = 27
temp = 27
method = modified trap
totiter = 802368
traniter = 801979
tranpoints = 400745
accept = 400522
rejected = 223
matrix size = 63
fillins = 76
solver = Normal
Thread vector: 29.3/12.3[3] 5.9/3.5[3] 3.2/2.6[2] 0.5/7.4[1]  2592/500
Matrix Compiler1: 13.01 KB object code size  3.4/2.1/[1.4]
Matrix Compiler2: 7.57 KB object code size  1.8/2.2/[1.7]

