Circuit: * C:\Users\b59mi\Documents\Business\4th Year Engineering\Semester 1\ECE490\Analog-Drum-Machine\Mixer\Draft2.asc

WARNING: Less than two connections to node B4.  This node is used by A47.
WARNING: Less than two connections to node NC_71.  This node is used by R5.
Direct Newton iteration for .op point succeeded.



Date: Wed Mar 27 18:09:56 2019
Total elapsed time: 6.606 seconds.

tnom = 27
temp = 27
method = modified trap
totiter = 30992
traniter = 30958
tranpoints = 5672
accept = 4247
rejected = 1425
matrix size = 727
fillins = 622
solver = Alternate
Thread vector: 190.5/140.1[4] 89.0/40.6[4] 51.4/30.2[4] 16.1/9.8[4]  2592/500
Matrix Compiler1: 74.24 KB object code size  48.6/36.1/[27.0]
Matrix Compiler2: 75.97 KB object code size  34.7/35.6/[14.3]

